 ****** HSPICE -- G-2012.06-SP2 32-BIT (Nov 27 2012) RHEL32 ******              
  Copyright (C) 2012 Synopsys, Inc. All Rights Reserved.                        
  Unpublished-rights reserved under US copyright laws.
  This program is protected by law and is subject to the
  terms and conditions of the license agreement from Synopsys.
  Use of this program is your acceptance to be bound by the
  license agreement. HSPICE is the trademark of Synopsys, Inc.
  Input File: /users/start2012/r0305883/Master2/DDIS/DDIS1/spicefiles/Adder16b_B
  Command line options: -i /users/start2012/r0305883/Master2/DDIS/DDIS1/spicefiles/Adder16b_BrentKungStandard.sp -o /users/start2012/r0305883/Master2/DDIS/DDIS1/spicefiles/
 lic:  
 lic: FLEXlm: v10.9.8 
 lic: USER:   r0305883             HOSTNAME: pc-klas5-10.esat.kuleuven.be 
 lic: HOSTID:                      PID:      8556 
 lic: Using FLEXlm license file: 
 lic: 27020@saturn 
 lic: Checkout 1 hspice 
 lic: License/Maintenance for hspice will expire on 15-aug-2016/2015.06 
 lic: 1(in_use)/50(total) FLOATING license(s) on SERVER saturn 
 lic:   
 Init: read install configuration file: /esat/micas-data/software/hspice_2012.06/hspice/meta.cfg
  **warning** (/users/start2012/r0305883/Master2/DDIS/DDIS1/spicefiles/Adder16b_BrentKungStandard.sp:17) Syntax error for output type i, the left parenthese is expected. This output is ignored.
1****** HSPICE -- G-2012.06-SP2 32-BIT (Nov 27 2012) RHEL32 ******              
 ******  
 ******************************

  ******  circuit name directory
 circuit number to circuit name directory
   number circuitname                     definition         multiplier
        0 main circuit
        1 xnota0.                         mynot              1.00 
        2 xnotan0.                        mynot              1.00 
        3 xnotb0.                         mynot              1.00 
        4 xnotbn0.                        mynot              1.00 
        5 xnota1.                         mynot              1.00 
        6 xnotan1.                        mynot              1.00 
        7 xnotb1.                         mynot              1.00 
        8 xnotbn1.                        mynot              1.00 
        9 xnota2.                         mynot              1.00 
       10 xnotan2.                        mynot              1.00 
       11 xnotb2.                         mynot              1.00 
       12 xnotbn2.                        mynot              1.00 
       13 xnota3.                         mynot              1.00 
       14 xnotan3.                        mynot              1.00 
       15 xnotb3.                         mynot              1.00 
       16 xnotbn3.                        mynot              1.00 
       17 xnota4.                         mynot              1.00 
       18 xnotan4.                        mynot              1.00 
       19 xnotb4.                         mynot              1.00 
       20 xnotbn4.                        mynot              1.00 
       21 xnota5.                         mynot              1.00 
       22 xnotan5.                        mynot              1.00 
       23 xnotb5.                         mynot              1.00 
       24 xnotbn5.                        mynot              1.00 
       25 xnota6.                         mynot              1.00 
       26 xnotan6.                        mynot              1.00 
       27 xnotb6.                         mynot              1.00 
       28 xnotbn6.                        mynot              1.00 
       29 xnota7.                         mynot              1.00 
       30 xnotan7.                        mynot              1.00 
       31 xnotb7.                         mynot              1.00 
       32 xnotbn7.                        mynot              1.00 
       33 xnota8.                         mynot              1.00 
       34 xnotan8.                        mynot              1.00 
       35 xnotb8.                         mynot              1.00 
       36 xnotbn8.                        mynot              1.00 
       37 xnota9.                         mynot              1.00 
       38 xnotan9.                        mynot              1.00 
       39 xnotb9.                         mynot              1.00 
       40 xnotbn9.                        mynot              1.00 
       41 xnota10.                        mynot              1.00 
       42 xnotan10.                       mynot              1.00 
       43 xnotb10.                        mynot              1.00 
       44 xnotbn10.                       mynot              1.00 
       45 xnota11.                        mynot              1.00 
       46 xnotan11.                       mynot              1.00 
       47 xnotb11.                        mynot              1.00 
       48 xnotbn11.                       mynot              1.00 
       49 xnota12.                        mynot              1.00 
       50 xnotan12.                       mynot              1.00 
       51 xnotb12.                        mynot              1.00 
       52 xnotbn12.                       mynot              1.00 
       53 xnota13.                        mynot              1.00 
       54 xnotan13.                       mynot              1.00 
       55 xnotb13.                        mynot              1.00 
       56 xnotbn13.                       mynot              1.00 
       57 xnota14.                        mynot              1.00 
       58 xnotan14.                       mynot              1.00 
       59 xnotb14.                        mynot              1.00 
       60 xnotbn14.                       mynot              1.00 
       61 xnota15.                        mynot              1.00 
       62 xnotan15.                       mynot              1.00 
       63 xnotb15.                        mynot              1.00 
       64 xnotbn15.                       mynot              1.00 
       65 xadder.                         adder              1.00 
       66 xnot1.                          mynot              1.00 
       67 xnot2.                          mynot              1.00 
       68 xnot3.                          mynot              1.00 
       69 xnot4.                          mynot              1.00 
       70 xnot5.                          mynot              1.00 
       71 xnot6.                          mynot              1.00 
       72 xnot7.                          mynot              1.00 
       73 xnot8.                          mynot              1.00 
       74 xnot9.                          mynot              1.00 
       75 xnot10.                         mynot              1.00 
       76 xnot11.                         mynot              1.00 
       77 xnot12.                         mynot              1.00 
       78 xnot13.                         mynot              1.00 
       79 xnot14.                         mynot              1.00 
       80 xnot15.                         mynot              1.00 
       81 xnot16.                         mynot              1.00 
       82 xnota0.xm1.                     mosn               1.00 
       83 xnota0.xm2.                     mosp               1.00 
       84 xnotan0.xm1.                    mosn               1.00 
       85 xnotan0.xm2.                    mosp               1.00 
       86 xnotb0.xm1.                     mosn               1.00 
       87 xnotb0.xm2.                     mosp               1.00 
       88 xnotbn0.xm1.                    mosn               1.00 
       89 xnotbn0.xm2.                    mosp               1.00 
       90 xnota1.xm1.                     mosn               1.00 
       91 xnota1.xm2.                     mosp               1.00 
       92 xnotan1.xm1.                    mosn               1.00 
       93 xnotan1.xm2.                    mosp               1.00 
       94 xnotb1.xm1.                     mosn               1.00 
       95 xnotb1.xm2.                     mosp               1.00 
       96 xnotbn1.xm1.                    mosn               1.00 
       97 xnotbn1.xm2.                    mosp               1.00 
       98 xnota2.xm1.                     mosn               1.00 
       99 xnota2.xm2.                     mosp               1.00 
      100 xnotan2.xm1.                    mosn               1.00 
      101 xnotan2.xm2.                    mosp               1.00 
      102 xnotb2.xm1.                     mosn               1.00 
      103 xnotb2.xm2.                     mosp               1.00 
      104 xnotbn2.xm1.                    mosn               1.00 
      105 xnotbn2.xm2.                    mosp               1.00 
      106 xnota3.xm1.                     mosn               1.00 
      107 xnota3.xm2.                     mosp               1.00 
      108 xnotan3.xm1.                    mosn               1.00 
      109 xnotan3.xm2.                    mosp               1.00 
      110 xnotb3.xm1.                     mosn               1.00 
      111 xnotb3.xm2.                     mosp               1.00 
      112 xnotbn3.xm1.                    mosn               1.00 
      113 xnotbn3.xm2.                    mosp               1.00 
      114 xnota4.xm1.                     mosn               1.00 
      115 xnota4.xm2.                     mosp               1.00 
      116 xnotan4.xm1.                    mosn               1.00 
      117 xnotan4.xm2.                    mosp               1.00 
      118 xnotb4.xm1.                     mosn               1.00 
      119 xnotb4.xm2.                     mosp               1.00 
      120 xnotbn4.xm1.                    mosn               1.00 
      121 xnotbn4.xm2.                    mosp               1.00 
      122 xnota5.xm1.                     mosn               1.00 
      123 xnota5.xm2.                     mosp               1.00 
      124 xnotan5.xm1.                    mosn               1.00 
      125 xnotan5.xm2.                    mosp               1.00 
      126 xnotb5.xm1.                     mosn               1.00 
      127 xnotb5.xm2.                     mosp               1.00 
      128 xnotbn5.xm1.                    mosn               1.00 
      129 xnotbn5.xm2.                    mosp               1.00 
      130 xnota6.xm1.                     mosn               1.00 
      131 xnota6.xm2.                     mosp               1.00 
      132 xnotan6.xm1.                    mosn               1.00 
      133 xnotan6.xm2.                    mosp               1.00 
      134 xnotb6.xm1.                     mosn               1.00 
      135 xnotb6.xm2.                     mosp               1.00 
      136 xnotbn6.xm1.                    mosn               1.00 
      137 xnotbn6.xm2.                    mosp               1.00 
      138 xnota7.xm1.                     mosn               1.00 
      139 xnota7.xm2.                     mosp               1.00 
      140 xnotan7.xm1.                    mosn               1.00 
      141 xnotan7.xm2.                    mosp               1.00 
      142 xnotb7.xm1.                     mosn               1.00 
      143 xnotb7.xm2.                     mosp               1.00 
      144 xnotbn7.xm1.                    mosn               1.00 
      145 xnotbn7.xm2.                    mosp               1.00 
      146 xnota8.xm1.                     mosn               1.00 
      147 xnota8.xm2.                     mosp               1.00 
      148 xnotan8.xm1.                    mosn               1.00 
      149 xnotan8.xm2.                    mosp               1.00 
      150 xnotb8.xm1.                     mosn               1.00 
      151 xnotb8.xm2.                     mosp               1.00 
      152 xnotbn8.xm1.                    mosn               1.00 
      153 xnotbn8.xm2.                    mosp               1.00 
      154 xnota9.xm1.                     mosn               1.00 
      155 xnota9.xm2.                     mosp               1.00 
      156 xnotan9.xm1.                    mosn               1.00 
      157 xnotan9.xm2.                    mosp               1.00 
      158 xnotb9.xm1.                     mosn               1.00 
      159 xnotb9.xm2.                     mosp               1.00 
      160 xnotbn9.xm1.                    mosn               1.00 
      161 xnotbn9.xm2.                    mosp               1.00 
      162 xnota10.xm1.                    mosn               1.00 
      163 xnota10.xm2.                    mosp               1.00 
      164 xnotan10.xm1.                   mosn               1.00 
      165 xnotan10.xm2.                   mosp               1.00 
      166 xnotb10.xm1.                    mosn               1.00 
      167 xnotb10.xm2.                    mosp               1.00 
      168 xnotbn10.xm1.                   mosn               1.00 
      169 xnotbn10.xm2.                   mosp               1.00 
      170 xnota11.xm1.                    mosn               1.00 
      171 xnota11.xm2.                    mosp               1.00 
      172 xnotan11.xm1.                   mosn               1.00 
      173 xnotan11.xm2.                   mosp               1.00 
      174 xnotb11.xm1.                    mosn               1.00 
      175 xnotb11.xm2.                    mosp               1.00 
      176 xnotbn11.xm1.                   mosn               1.00 
      177 xnotbn11.xm2.                   mosp               1.00 
      178 xnota12.xm1.                    mosn               1.00 
      179 xnota12.xm2.                    mosp               1.00 
      180 xnotan12.xm1.                   mosn               1.00 
      181 xnotan12.xm2.                   mosp               1.00 
      182 xnotb12.xm1.                    mosn               1.00 
      183 xnotb12.xm2.                    mosp               1.00 
      184 xnotbn12.xm1.                   mosn               1.00 
      185 xnotbn12.xm2.                   mosp               1.00 
      186 xnota13.xm1.                    mosn               1.00 
      187 xnota13.xm2.                    mosp               1.00 
      188 xnotan13.xm1.                   mosn               1.00 
      189 xnotan13.xm2.                   mosp               1.00 
      190 xnotb13.xm1.                    mosn               1.00 
      191 xnotb13.xm2.                    mosp               1.00 
      192 xnotbn13.xm1.                   mosn               1.00 
      193 xnotbn13.xm2.                   mosp               1.00 
      194 xnota14.xm1.                    mosn               1.00 
      195 xnota14.xm2.                    mosp               1.00 
      196 xnotan14.xm1.                   mosn               1.00 
      197 xnotan14.xm2.                   mosp               1.00 
      198 xnotb14.xm1.                    mosn               1.00 
      199 xnotb14.xm2.                    mosp               1.00 
      200 xnotbn14.xm1.                   mosn               1.00 
      201 xnotbn14.xm2.                   mosp               1.00 
      202 xnota15.xm1.                    mosn               1.00 
      203 xnota15.xm2.                    mosp               1.00 
      204 xnotan15.xm1.                   mosn               1.00 
      205 xnotan15.xm2.                   mosp               1.00 
      206 xnotb15.xm1.                    mosn               1.00 
      207 xnotb15.xm2.                    mosp               1.00 
      208 xnotbn15.xm1.                   mosn               1.00 
      209 xnotbn15.xm2.                   mosp               1.00 
      210 xadder.xgenprop0.               genpropinvslow     1.00 
      211 xadder.xgenprop1.               genpropinvslow     1.00 
      212 xadder.xgenprop2.               genpropinvslow     1.00 
      213 xadder.xgenprop3.               genpropinvslow     1.00 
      214 xadder.xgenprop4.               genpropinvslow     1.00 
      215 xadder.xgenprop5.               genpropinvslow     1.00 
      216 xadder.xgenprop6.               genpropinvslow     1.00 
      217 xadder.xgenprop7.               genpropinvslow     1.00 
      218 xadder.xgenprop8.               genpropinvslow     1.00 
      219 xadder.xgenprop9.               genpropinvslow     1.00 
      220 xadder.xgenprop10.              genpropinvslow     1.00 
      221 xadder.xgenprop11.              genpropinvslow     1.00 
      222 xadder.xgenprop12.              genpropinvslow     1.00 
      223 xadder.xgenprop13.              genpropinvslow     1.00 
      224 xadder.xgenprop14.              genpropinvslow     1.00 
      225 xadder.xgenprop15.              genpropinvslow     1.00 
      226 xadder.xnotprop0.               mynotslow          1.00 
      227 xadder.xdotoperator_a_0.        dotoperatorlowerinv
                                                                 1.00 
      228 xadder.xnot1.                   mynotslow          1.00 
      229 xadder.xdotoperator_a_1.        dotoperatorupperinvslow
                                                                 1.00 
      230 xadder.xdotoperator_a_2.        dotoperatorupperinvslow
                                                                 1.00 
      231 xadder.xdotoperator_a_3.        dotoperatorupperinvslow
                                                                 1.00 
      232 xadder.xdotoperator_a_4.        dotoperatorupperinvslow
                                                                 1.00 
      233 xadder.xdotoperator_a_5.        dotoperatorupperinvslow
                                                                 1.00 
      234 xadder.xdotoperator_a_6.        dotoperatorupperinvslow
                                                                 1.00 
      235 xadder.xdotoperator_a_7.        dotoperatorupperinvslow
                                                                 1.00 
      236 xadder.xdotoperator_b_0.        dotoperatorlower   1.00 
      237 xadder.xnot2.                   mynotslow          1.00 
      238 xadder.xnot3_0.                 mynotslow          1.00 
      239 xadder.xdotoperator_b_1.        dotoperatorupperslow
                                                                 1.00 
      240 xadder.xdotoperator_b_2.        dotoperatorupperslow
                                                                 1.00 
      241 xadder.xdotoperator_b_3.        dotoperatorupperslow
                                                                 1.00 
      242 xadder.xdotoperator_c_0.        dotoperatorlowerinv
                                                                 1.00 
      243 xadder.xdotoperator_c_1.        dotoperatorupperinvslow
                                                                 1.00 
      244 xadder.xdotoperator_d_0.        dotoperatorlowerslow
                                                                 1.00 
      245 xadder.xnot7_1.                 mynotslow          1.00 
      246 xadder.xnot7_2.                 mynotslow          1.00 
      247 xadder.xnot11_8g.               mynotslow          1.00 
      248 xadder.xnot11_8p.               mynotslow          1.00 
      249 xadder.xdotoperator_l_1.        dotoperatorlower   1.00 
      250 xadder.xnot7.                   mynotslow          1.00 
      251 xadder.xnot11g.                 mynotslow          1.00 
      252 xadder.xdotoperator_m_1.        dotoperatorlowerslow
                                                                 1.00 
      253 xadder.xdotoperator_m_2.        dotoperatorlowerslow
                                                                 1.00 
      254 xadder.xnot13_g.                mynotslow          1.00 
      255 xadder.xnot13_p.                mynotslow          1.00 
      256 xadder.xdotoperator_m_3.        dotoperatorlowerinv
                                                                 1.00 
      257 xadder.xdotoperator_n_1.        dotoperatorlowerinvslow
                                                                 1.00 
      258 xadder.xdotoperator_n_2.        dotoperatorlowerinvslow
                                                                 1.00 
      259 xadder.xdotoperator_n_3.        dotoperatorlowerinvslow
                                                                 1.00 
      260 xadder.xdotoperator_n_4.        dotoperatorlowerinvslow
                                                                 1.00 
      261 xadder.xdotoperator_n_5.        dotoperatorlowerinvslow
                                                                 1.00 
      262 xadder.xdotoperator_n_6.        dotoperatorlowerinvslow
                                                                 1.00 
      263 xadder.xnot14g.                 mynotslow          1.00 
      264 xadder.xnot14p.                 mynotslow          1.00 
      265 xadder.xdotoperator_n_7.        dotoperatorlower   1.00 
      266 xadder.xnot0g.                  mynotslow          1.00 
      267 xadder.xxor_1.                  mytxorinv          1.00 
      268 xadder.xxor_2.                  mytxor             1.00 
      269 xadder.xxor_3.                  mytxorinv          1.00 
      270 xadder.xxor_4.                  mytxorinv          1.00 
      271 xadder.xxor_5.                  mytxorinv          1.00 
      272 xadder.xxor_6.                  mytxor             1.00 
      273 xadder.xxor_7.                  mytxorinv          1.00 
      274 xadder.xxor_8.                  mytxor             1.00 
      275 xadder.xxor_9.                  mytxorinv          1.00 
      276 xadder.xxor_10.                 mytxor             1.00 
      277 xadder.xxor_11.                 mytxorinv          1.00 
      278 xadder.xxor_12.                 mytxorinv          1.00 
      279 xadder.xxor_13.                 mytxorinv          1.00 
      280 xadder.xnot13g.                 mynotslow          1.00 
      281 xadder.xxor_14.                 mytxor             1.00 
      282 xadder.xxor_15.                 myxor              1.00 
      283 xadder.xnot_16.                 mynotslow          1.00 
      284 xnot1.xm1.                      mosn               1.00 
      285 xnot1.xm2.                      mosp               1.00 
      286 xnot2.xm1.                      mosn               1.00 
      287 xnot2.xm2.                      mosp               1.00 
      288 xnot3.xm1.                      mosn               1.00 
      289 xnot3.xm2.                      mosp               1.00 
      290 xnot4.xm1.                      mosn               1.00 
      291 xnot4.xm2.                      mosp               1.00 
      292 xnot5.xm1.                      mosn               1.00 
      293 xnot5.xm2.                      mosp               1.00 
      294 xnot6.xm1.                      mosn               1.00 
      295 xnot6.xm2.                      mosp               1.00 
      296 xnot7.xm1.                      mosn               1.00 
      297 xnot7.xm2.                      mosp               1.00 
      298 xnot8.xm1.                      mosn               1.00 
      299 xnot8.xm2.                      mosp               1.00 
      300 xnot9.xm1.                      mosn               1.00 
      301 xnot9.xm2.                      mosp               1.00 
      302 xnot10.xm1.                     mosn               1.00 
      303 xnot10.xm2.                     mosp               1.00 
      304 xnot11.xm1.                     mosn               1.00 
      305 xnot11.xm2.                     mosp               1.00 
      306 xnot12.xm1.                     mosn               1.00 
      307 xnot12.xm2.                     mosp               1.00 
      308 xnot13.xm1.                     mosn               1.00 
      309 xnot13.xm2.                     mosp               1.00 
      310 xnot14.xm1.                     mosn               1.00 
      311 xnot14.xm2.                     mosp               1.00 
      312 xnot15.xm1.                     mosn               1.00 
      313 xnot15.xm2.                     mosp               1.00 
      314 xnot16.xm1.                     mosn               1.00 
      315 xnot16.xm2.                     mosp               1.00 
      316 xadder.xgenprop0.xand.          mynandslow         1.00 
      317 xadder.xgenprop0.xxnor.         mytxorinv          1.00 
      318 xadder.xgenprop1.xand.          mynandslow         1.00 
      319 xadder.xgenprop1.xxnor.         mytxorinv          1.00 
      320 xadder.xgenprop2.xand.          mynandslow         1.00 
      321 xadder.xgenprop2.xxnor.         mytxorinv          1.00 
      322 xadder.xgenprop3.xand.          mynandslow         1.00 
      323 xadder.xgenprop3.xxnor.         mytxorinv          1.00 
      324 xadder.xgenprop4.xand.          mynandslow         1.00 
      325 xadder.xgenprop4.xxnor.         mytxorinv          1.00 
      326 xadder.xgenprop5.xand.          mynandslow         1.00 
      327 xadder.xgenprop5.xxnor.         mytxorinv          1.00 
      328 xadder.xgenprop6.xand.          mynandslow         1.00 
      329 xadder.xgenprop6.xxnor.         mytxorinv          1.00 
      330 xadder.xgenprop7.xand.          mynandslow         1.00 
      331 xadder.xgenprop7.xxnor.         mytxorinv          1.00 
      332 xadder.xgenprop8.xand.          mynandslow         1.00 
      333 xadder.xgenprop8.xxnor.         mytxorinv          1.00 
      334 xadder.xgenprop9.xand.          mynandslow         1.00 
      335 xadder.xgenprop9.xxnor.         mytxorinv          1.00 
      336 xadder.xgenprop10.xand.         mynandslow         1.00 
      337 xadder.xgenprop10.xxnor.        mytxorinv          1.00 
      338 xadder.xgenprop11.xand.         mynandslow         1.00 
      339 xadder.xgenprop11.xxnor.        mytxorinv          1.00 
      340 xadder.xgenprop12.xand.         mynandslow         1.00 
      341 xadder.xgenprop12.xxnor.        mytxorinv          1.00 
      342 xadder.xgenprop13.xand.         mynandslow         1.00 
      343 xadder.xgenprop13.xxnor.        mytxorinv          1.00 
      344 xadder.xgenprop14.xand.         mynandslow         1.00 
      345 xadder.xgenprop14.xxnor.        mytxorinv          1.00 
      346 xadder.xgenprop15.xand.         mynandslow         1.00 
      347 xadder.xgenprop15.xxnor.        mytxorinv          1.00 
      348 xadder.xnotprop0.xm1.           mosn               1.00 
      349 xadder.xnotprop0.xm2.           mosp               1.00 
      350 xadder.xdotoperator_a_0.xoa.    myoai              1.00 
      351 xadder.xnot1.xm1.               mosn               1.00 
      352 xadder.xnot1.xm2.               mosp               1.00 
      353 xadder.xdotoperator_a_1.xaoi.   myoaislow          1.00 
      354 xadder.xdotoperator_a_1.xxnor.  mynorslow          1.00 
      355 xadder.xdotoperator_a_2.xaoi.   myoaislow          1.00 
      356 xadder.xdotoperator_a_2.xxnor.  mynorslow          1.00 
      357 xadder.xdotoperator_a_3.xaoi.   myoaislow          1.00 
      358 xadder.xdotoperator_a_3.xxnor.  mynorslow          1.00 
      359 xadder.xdotoperator_a_4.xaoi.   myoaislow          1.00 
      360 xadder.xdotoperator_a_4.xxnor.  mynorslow          1.00 
      361 xadder.xdotoperator_a_5.xaoi.   myoaislow          1.00 
      362 xadder.xdotoperator_a_5.xxnor.  mynorslow          1.00 
      363 xadder.xdotoperator_a_6.xaoi.   myoaislow          1.00 
      364 xadder.xdotoperator_a_6.xxnor.  mynorslow          1.00 
      365 xadder.xdotoperator_a_7.xaoi.   myoaislow          1.00 
      366 xadder.xdotoperator_a_7.xxnor.  mynorslow          1.00 
      367 xadder.xdotoperator_b_0.xaoi.   myaoi              1.00 
      368 xadder.xnot2.xm1.               mosn               1.00 
      369 xadder.xnot2.xm2.               mosp               1.00 
      370 xadder.xnot3_0.xm1.             mosn               1.00 
      371 xadder.xnot3_0.xm2.             mosp               1.00 
      372 xadder.xdotoperator_b_1.xaoi.   myaoislow          1.00 
      373 xadder.xdotoperator_b_1.xnand.  mynand             1.00 
      374 xadder.xdotoperator_b_2.xaoi.   myaoislow          1.00 
      375 xadder.xdotoperator_b_2.xnand.  mynand             1.00 
      376 xadder.xdotoperator_b_3.xaoi.   myaoislow          1.00 
      377 xadder.xdotoperator_b_3.xnand.  mynand             1.00 
      378 xadder.xdotoperator_c_0.xoa.    myoai              1.00 
      379 xadder.xdotoperator_c_1.xaoi.   myoaislow          1.00 
      380 xadder.xdotoperator_c_1.xxnor.  mynorslow          1.00 
      381 xadder.xdotoperator_d_0.xaoi.   myaoislow          1.00 
      382 xadder.xnot7_1.xm1.             mosn               1.00 
      383 xadder.xnot7_1.xm2.             mosp               1.00 
      384 xadder.xnot7_2.xm1.             mosn               1.00 
      385 xadder.xnot7_2.xm2.             mosp               1.00 
      386 xadder.xnot11_8g.xm1.           mosn               1.00 
      387 xadder.xnot11_8g.xm2.           mosp               1.00 
      388 xadder.xnot11_8p.xm1.           mosn               1.00 
      389 xadder.xnot11_8p.xm2.           mosp               1.00 
      390 xadder.xdotoperator_l_1.xaoi.   myaoi              1.00 
      391 xadder.xnot7.xm1.               mosn               1.00 
      392 xadder.xnot7.xm2.               mosp               1.00 
      393 xadder.xnot11g.xm1.             mosn               1.00 
      394 xadder.xnot11g.xm2.             mosp               1.00 
      395 xadder.xdotoperator_m_1.xaoi.   myaoislow          1.00 
      396 xadder.xdotoperator_m_2.xaoi.   myaoislow          1.00 
      397 xadder.xnot13_g.xm1.            mosn               1.00 
      398 xadder.xnot13_g.xm2.            mosp               1.00 
      399 xadder.xnot13_p.xm1.            mosn               1.00 
      400 xadder.xnot13_p.xm2.            mosp               1.00 
      401 xadder.xdotoperator_m_3.xoa.    myoai              1.00 
      402 xadder.xdotoperator_n_1.xoa.    myoaislow          1.00 
      403 xadder.xdotoperator_n_2.xoa.    myoaislow          1.00 
      404 xadder.xdotoperator_n_3.xoa.    myoaislow          1.00 
      405 xadder.xdotoperator_n_4.xoa.    myoaislow          1.00 
      406 xadder.xdotoperator_n_5.xoa.    myoaislow          1.00 
      407 xadder.xdotoperator_n_6.xoa.    myoaislow          1.00 
      408 xadder.xnot14g.xm1.             mosn               1.00 
      409 xadder.xnot14g.xm2.             mosp               1.00 
      410 xadder.xnot14p.xm1.             mosn               1.00 
      411 xadder.xnot14p.xm2.             mosp               1.00 
      412 xadder.xdotoperator_n_7.xaoi.   myaoi              1.00 
      413 xadder.xnot0g.xm1.              mosn               1.00 
      414 xadder.xnot0g.xm2.              mosp               1.00 
      415 xadder.xxor_1.xnot1.            mynotslow          1.00 
      416 xadder.xxor_1.xm4.              mosp               1.00 
      417 xadder.xxor_1.xm1.              mosn               1.00 
      418 xadder.xxor_1.xm3.              mosp               1.00 
      419 xadder.xxor_1.xm2.              mosn               1.00 
      420 xadder.xxor_2.xnot1.            mynotslow          1.00 
      421 xadder.xxor_2.xm4.              mosp               1.00 
      422 xadder.xxor_2.xm1.              mosn               1.00 
      423 xadder.xxor_2.xm3.              mosp               1.00 
      424 xadder.xxor_2.xm2.              mosn               1.00 
      425 xadder.xxor_3.xnot1.            mynotslow          1.00 
      426 xadder.xxor_3.xm4.              mosp               1.00 
      427 xadder.xxor_3.xm1.              mosn               1.00 
      428 xadder.xxor_3.xm3.              mosp               1.00 
      429 xadder.xxor_3.xm2.              mosn               1.00 
      430 xadder.xxor_4.xnot1.            mynotslow          1.00 
      431 xadder.xxor_4.xm4.              mosp               1.00 
      432 xadder.xxor_4.xm1.              mosn               1.00 
      433 xadder.xxor_4.xm3.              mosp               1.00 
      434 xadder.xxor_4.xm2.              mosn               1.00 
      435 xadder.xxor_5.xnot1.            mynotslow          1.00 
      436 xadder.xxor_5.xm4.              mosp               1.00 
      437 xadder.xxor_5.xm1.              mosn               1.00 
      438 xadder.xxor_5.xm3.              mosp               1.00 
      439 xadder.xxor_5.xm2.              mosn               1.00 
      440 xadder.xxor_6.xnot1.            mynotslow          1.00 
      441 xadder.xxor_6.xm4.              mosp               1.00 
      442 xadder.xxor_6.xm1.              mosn               1.00 
      443 xadder.xxor_6.xm3.              mosp               1.00 
      444 xadder.xxor_6.xm2.              mosn               1.00 
      445 xadder.xxor_7.xnot1.            mynotslow          1.00 
      446 xadder.xxor_7.xm4.              mosp               1.00 
      447 xadder.xxor_7.xm1.              mosn               1.00 
      448 xadder.xxor_7.xm3.              mosp               1.00 
      449 xadder.xxor_7.xm2.              mosn               1.00 
      450 xadder.xxor_8.xnot1.            mynotslow          1.00 
      451 xadder.xxor_8.xm4.              mosp               1.00 
      452 xadder.xxor_8.xm1.              mosn               1.00 
      453 xadder.xxor_8.xm3.              mosp               1.00 
      454 xadder.xxor_8.xm2.              mosn               1.00 
      455 xadder.xxor_9.xnot1.            mynotslow          1.00 
      456 xadder.xxor_9.xm4.              mosp               1.00 
      457 xadder.xxor_9.xm1.              mosn               1.00 
      458 xadder.xxor_9.xm3.              mosp               1.00 
      459 xadder.xxor_9.xm2.              mosn               1.00 
      460 xadder.xxor_10.xnot1.           mynotslow          1.00 
      461 xadder.xxor_10.xm4.             mosp               1.00 
      462 xadder.xxor_10.xm1.             mosn               1.00 
      463 xadder.xxor_10.xm3.             mosp               1.00 
      464 xadder.xxor_10.xm2.             mosn               1.00 
      465 xadder.xxor_11.xnot1.           mynotslow          1.00 
      466 xadder.xxor_11.xm4.             mosp               1.00 
      467 xadder.xxor_11.xm1.             mosn               1.00 
      468 xadder.xxor_11.xm3.             mosp               1.00 
      469 xadder.xxor_11.xm2.             mosn               1.00 
      470 xadder.xxor_12.xnot1.           mynotslow          1.00 
      471 xadder.xxor_12.xm4.             mosp               1.00 
      472 xadder.xxor_12.xm1.             mosn               1.00 
      473 xadder.xxor_12.xm3.             mosp               1.00 
      474 xadder.xxor_12.xm2.             mosn               1.00 
      475 xadder.xxor_13.xnot1.           mynotslow          1.00 
      476 xadder.xxor_13.xm4.             mosp               1.00 
      477 xadder.xxor_13.xm1.             mosn               1.00 
      478 xadder.xxor_13.xm3.             mosp               1.00 
      479 xadder.xxor_13.xm2.             mosn               1.00 
      480 xadder.xnot13g.xm1.             mosn               1.00 
      481 xadder.xnot13g.xm2.             mosp               1.00 
      482 xadder.xxor_14.xnot1.           mynotslow          1.00 
      483 xadder.xxor_14.xm4.             mosp               1.00 
      484 xadder.xxor_14.xm1.             mosn               1.00 
      485 xadder.xxor_14.xm3.             mosp               1.00 
      486 xadder.xxor_14.xm2.             mosn               1.00 
      487 xadder.xxor_15.xnot1.           mynotslow          1.00 
      488 xadder.xxor_15.xnot2.           mynotslow          1.00 
      489 xadder.xxor_15.xm1.             mosp               1.00 
      490 xadder.xxor_15.xm2.             mosp               1.00 
      491 xadder.xxor_15.xm3.             mosp               1.00 
      492 xadder.xxor_15.xm4.             mosp               1.00 
      493 xadder.xxor_15.xm5.             mosn               1.00 
      494 xadder.xxor_15.xm6.             mosn               1.00 
      495 xadder.xxor_15.xm7.             mosn               1.00 
      496 xadder.xxor_15.xm8.             mosn               1.00 
      497 xadder.xnot_16.xm1.             mosn               1.00 
      498 xadder.xnot_16.xm2.             mosp               1.00 
      499 xadder.xgenprop0.xand.xm1.      mosn               1.00 
      500 xadder.xgenprop0.xand.xm2.      mosn               1.00 
      501 xadder.xgenprop0.xand.xm3.      mosp               1.00 
      502 xadder.xgenprop0.xand.xm4.      mosp               1.00 
      503 xadder.xgenprop0.xxnor.xnot1.   mynotslow          1.00 
      504 xadder.xgenprop0.xxnor.xm4.     mosp               1.00 
      505 xadder.xgenprop0.xxnor.xm1.     mosn               1.00 
      506 xadder.xgenprop0.xxnor.xm3.     mosp               1.00 
      507 xadder.xgenprop0.xxnor.xm2.     mosn               1.00 
      508 xadder.xgenprop1.xand.xm1.      mosn               1.00 
      509 xadder.xgenprop1.xand.xm2.      mosn               1.00 
      510 xadder.xgenprop1.xand.xm3.      mosp               1.00 
      511 xadder.xgenprop1.xand.xm4.      mosp               1.00 
      512 xadder.xgenprop1.xxnor.xnot1.   mynotslow          1.00 
      513 xadder.xgenprop1.xxnor.xm4.     mosp               1.00 
      514 xadder.xgenprop1.xxnor.xm1.     mosn               1.00 
      515 xadder.xgenprop1.xxnor.xm3.     mosp               1.00 
      516 xadder.xgenprop1.xxnor.xm2.     mosn               1.00 
      517 xadder.xgenprop2.xand.xm1.      mosn               1.00 
      518 xadder.xgenprop2.xand.xm2.      mosn               1.00 
      519 xadder.xgenprop2.xand.xm3.      mosp               1.00 
      520 xadder.xgenprop2.xand.xm4.      mosp               1.00 
      521 xadder.xgenprop2.xxnor.xnot1.   mynotslow          1.00 
      522 xadder.xgenprop2.xxnor.xm4.     mosp               1.00 
      523 xadder.xgenprop2.xxnor.xm1.     mosn               1.00 
      524 xadder.xgenprop2.xxnor.xm3.     mosp               1.00 
      525 xadder.xgenprop2.xxnor.xm2.     mosn               1.00 
      526 xadder.xgenprop3.xand.xm1.      mosn               1.00 
      527 xadder.xgenprop3.xand.xm2.      mosn               1.00 
      528 xadder.xgenprop3.xand.xm3.      mosp               1.00 
      529 xadder.xgenprop3.xand.xm4.      mosp               1.00 
      530 xadder.xgenprop3.xxnor.xnot1.   mynotslow          1.00 
      531 xadder.xgenprop3.xxnor.xm4.     mosp               1.00 
      532 xadder.xgenprop3.xxnor.xm1.     mosn               1.00 
      533 xadder.xgenprop3.xxnor.xm3.     mosp               1.00 
      534 xadder.xgenprop3.xxnor.xm2.     mosn               1.00 
      535 xadder.xgenprop4.xand.xm1.      mosn               1.00 
      536 xadder.xgenprop4.xand.xm2.      mosn               1.00 
      537 xadder.xgenprop4.xand.xm3.      mosp               1.00 
      538 xadder.xgenprop4.xand.xm4.      mosp               1.00 
      539 xadder.xgenprop4.xxnor.xnot1.   mynotslow          1.00 
      540 xadder.xgenprop4.xxnor.xm4.     mosp               1.00 
      541 xadder.xgenprop4.xxnor.xm1.     mosn               1.00 
      542 xadder.xgenprop4.xxnor.xm3.     mosp               1.00 
      543 xadder.xgenprop4.xxnor.xm2.     mosn               1.00 
      544 xadder.xgenprop5.xand.xm1.      mosn               1.00 
      545 xadder.xgenprop5.xand.xm2.      mosn               1.00 
      546 xadder.xgenprop5.xand.xm3.      mosp               1.00 
      547 xadder.xgenprop5.xand.xm4.      mosp               1.00 
      548 xadder.xgenprop5.xxnor.xnot1.   mynotslow          1.00 
      549 xadder.xgenprop5.xxnor.xm4.     mosp               1.00 
      550 xadder.xgenprop5.xxnor.xm1.     mosn               1.00 
      551 xadder.xgenprop5.xxnor.xm3.     mosp               1.00 
      552 xadder.xgenprop5.xxnor.xm2.     mosn               1.00 
      553 xadder.xgenprop6.xand.xm1.      mosn               1.00 
      554 xadder.xgenprop6.xand.xm2.      mosn               1.00 
      555 xadder.xgenprop6.xand.xm3.      mosp               1.00 
      556 xadder.xgenprop6.xand.xm4.      mosp               1.00 
      557 xadder.xgenprop6.xxnor.xnot1.   mynotslow          1.00 
      558 xadder.xgenprop6.xxnor.xm4.     mosp               1.00 
      559 xadder.xgenprop6.xxnor.xm1.     mosn               1.00 
      560 xadder.xgenprop6.xxnor.xm3.     mosp               1.00 
      561 xadder.xgenprop6.xxnor.xm2.     mosn               1.00 
      562 xadder.xgenprop7.xand.xm1.      mosn               1.00 
      563 xadder.xgenprop7.xand.xm2.      mosn               1.00 
      564 xadder.xgenprop7.xand.xm3.      mosp               1.00 
      565 xadder.xgenprop7.xand.xm4.      mosp               1.00 
      566 xadder.xgenprop7.xxnor.xnot1.   mynotslow          1.00 
      567 xadder.xgenprop7.xxnor.xm4.     mosp               1.00 
      568 xadder.xgenprop7.xxnor.xm1.     mosn               1.00 
      569 xadder.xgenprop7.xxnor.xm3.     mosp               1.00 
      570 xadder.xgenprop7.xxnor.xm2.     mosn               1.00 
      571 xadder.xgenprop8.xand.xm1.      mosn               1.00 
      572 xadder.xgenprop8.xand.xm2.      mosn               1.00 
      573 xadder.xgenprop8.xand.xm3.      mosp               1.00 
      574 xadder.xgenprop8.xand.xm4.      mosp               1.00 
      575 xadder.xgenprop8.xxnor.xnot1.   mynotslow          1.00 
      576 xadder.xgenprop8.xxnor.xm4.     mosp               1.00 
      577 xadder.xgenprop8.xxnor.xm1.     mosn               1.00 
      578 xadder.xgenprop8.xxnor.xm3.     mosp               1.00 
      579 xadder.xgenprop8.xxnor.xm2.     mosn               1.00 
      580 xadder.xgenprop9.xand.xm1.      mosn               1.00 
      581 xadder.xgenprop9.xand.xm2.      mosn               1.00 
      582 xadder.xgenprop9.xand.xm3.      mosp               1.00 
      583 xadder.xgenprop9.xand.xm4.      mosp               1.00 
      584 xadder.xgenprop9.xxnor.xnot1.   mynotslow          1.00 
      585 xadder.xgenprop9.xxnor.xm4.     mosp               1.00 
      586 xadder.xgenprop9.xxnor.xm1.     mosn               1.00 
      587 xadder.xgenprop9.xxnor.xm3.     mosp               1.00 
      588 xadder.xgenprop9.xxnor.xm2.     mosn               1.00 
      589 xadder.xgenprop10.xand.xm1.     mosn               1.00 
      590 xadder.xgenprop10.xand.xm2.     mosn               1.00 
      591 xadder.xgenprop10.xand.xm3.     mosp               1.00 
      592 xadder.xgenprop10.xand.xm4.     mosp               1.00 
      593 xadder.xgenprop10.xxnor.xnot1.  mynotslow          1.00 
      594 xadder.xgenprop10.xxnor.xm4.    mosp               1.00 
      595 xadder.xgenprop10.xxnor.xm1.    mosn               1.00 
      596 xadder.xgenprop10.xxnor.xm3.    mosp               1.00 
      597 xadder.xgenprop10.xxnor.xm2.    mosn               1.00 
      598 xadder.xgenprop11.xand.xm1.     mosn               1.00 
      599 xadder.xgenprop11.xand.xm2.     mosn               1.00 
      600 xadder.xgenprop11.xand.xm3.     mosp               1.00 
      601 xadder.xgenprop11.xand.xm4.     mosp               1.00 
      602 xadder.xgenprop11.xxnor.xnot1.  mynotslow          1.00 
      603 xadder.xgenprop11.xxnor.xm4.    mosp               1.00 
      604 xadder.xgenprop11.xxnor.xm1.    mosn               1.00 
      605 xadder.xgenprop11.xxnor.xm3.    mosp               1.00 
      606 xadder.xgenprop11.xxnor.xm2.    mosn               1.00 
      607 xadder.xgenprop12.xand.xm1.     mosn               1.00 
      608 xadder.xgenprop12.xand.xm2.     mosn               1.00 
      609 xadder.xgenprop12.xand.xm3.     mosp               1.00 
      610 xadder.xgenprop12.xand.xm4.     mosp               1.00 
      611 xadder.xgenprop12.xxnor.xnot1.  mynotslow          1.00 
      612 xadder.xgenprop12.xxnor.xm4.    mosp               1.00 
      613 xadder.xgenprop12.xxnor.xm1.    mosn               1.00 
      614 xadder.xgenprop12.xxnor.xm3.    mosp               1.00 
      615 xadder.xgenprop12.xxnor.xm2.    mosn               1.00 
      616 xadder.xgenprop13.xand.xm1.     mosn               1.00 
      617 xadder.xgenprop13.xand.xm2.     mosn               1.00 
      618 xadder.xgenprop13.xand.xm3.     mosp               1.00 
      619 xadder.xgenprop13.xand.xm4.     mosp               1.00 
      620 xadder.xgenprop13.xxnor.xnot1.  mynotslow          1.00 
      621 xadder.xgenprop13.xxnor.xm4.    mosp               1.00 
      622 xadder.xgenprop13.xxnor.xm1.    mosn               1.00 
      623 xadder.xgenprop13.xxnor.xm3.    mosp               1.00 
      624 xadder.xgenprop13.xxnor.xm2.    mosn               1.00 
      625 xadder.xgenprop14.xand.xm1.     mosn               1.00 
      626 xadder.xgenprop14.xand.xm2.     mosn               1.00 
      627 xadder.xgenprop14.xand.xm3.     mosp               1.00 
      628 xadder.xgenprop14.xand.xm4.     mosp               1.00 
      629 xadder.xgenprop14.xxnor.xnot1.  mynotslow          1.00 
      630 xadder.xgenprop14.xxnor.xm4.    mosp               1.00 
      631 xadder.xgenprop14.xxnor.xm1.    mosn               1.00 
      632 xadder.xgenprop14.xxnor.xm3.    mosp               1.00 
      633 xadder.xgenprop14.xxnor.xm2.    mosn               1.00 
      634 xadder.xgenprop15.xand.xm1.     mosn               1.00 
      635 xadder.xgenprop15.xand.xm2.     mosn               1.00 
      636 xadder.xgenprop15.xand.xm3.     mosp               1.00 
      637 xadder.xgenprop15.xand.xm4.     mosp               1.00 
      638 xadder.xgenprop15.xxnor.xnot1.  mynotslow          1.00 
      639 xadder.xgenprop15.xxnor.xm4.    mosp               1.00 
      640 xadder.xgenprop15.xxnor.xm1.    mosn               1.00 
      641 xadder.xgenprop15.xxnor.xm3.    mosp               1.00 
      642 xadder.xgenprop15.xxnor.xm2.    mosn               1.00 
      643 xadder.xdotoperator_a_0.xoa.xm1.
                                            mosp               1.00 
      644 xadder.xdotoperator_a_0.xoa.xm2.
                                            mosp               1.00 
      645 xadder.xdotoperator_a_0.xoa.xm3.
                                            mosp               1.00 
      646 xadder.xdotoperator_a_0.xoa.xm5.
                                            mosn               1.00 
      647 xadder.xdotoperator_a_0.xoa.xm6.
                                            mosn               1.00 
      648 xadder.xdotoperator_a_0.xoa.xm7.
                                            mosn               1.00 
      649 xadder.xdotoperator_a_1.xaoi.xm1.
                                            mosp               1.00 
      650 xadder.xdotoperator_a_1.xaoi.xm2.
                                            mosp               1.00 
      651 xadder.xdotoperator_a_1.xaoi.xm3.
                                            mosp               1.00 
      652 xadder.xdotoperator_a_1.xaoi.xm5.
                                            mosn               1.00 
      653 xadder.xdotoperator_a_1.xaoi.xm6.
                                            mosn               1.00 
      654 xadder.xdotoperator_a_1.xaoi.xm7.
                                            mosn               1.00 
      655 xadder.xdotoperator_a_1.xxnor.xm3.
                                            mosp               1.00 
      656 xadder.xdotoperator_a_1.xxnor.xm4.
                                            mosp               1.00 
      657 xadder.xdotoperator_a_1.xxnor.xm1.
                                            mosn               1.00 
      658 xadder.xdotoperator_a_1.xxnor.xm2.
                                            mosn               1.00 
      659 xadder.xdotoperator_a_2.xaoi.xm1.
                                            mosp               1.00 
      660 xadder.xdotoperator_a_2.xaoi.xm2.
                                            mosp               1.00 
      661 xadder.xdotoperator_a_2.xaoi.xm3.
                                            mosp               1.00 
      662 xadder.xdotoperator_a_2.xaoi.xm5.
                                            mosn               1.00 
      663 xadder.xdotoperator_a_2.xaoi.xm6.
                                            mosn               1.00 
      664 xadder.xdotoperator_a_2.xaoi.xm7.
                                            mosn               1.00 
      665 xadder.xdotoperator_a_2.xxnor.xm3.
                                            mosp               1.00 
      666 xadder.xdotoperator_a_2.xxnor.xm4.
                                            mosp               1.00 
      667 xadder.xdotoperator_a_2.xxnor.xm1.
                                            mosn               1.00 
      668 xadder.xdotoperator_a_2.xxnor.xm2.
                                            mosn               1.00 
      669 xadder.xdotoperator_a_3.xaoi.xm1.
                                            mosp               1.00 
      670 xadder.xdotoperator_a_3.xaoi.xm2.
                                            mosp               1.00 
      671 xadder.xdotoperator_a_3.xaoi.xm3.
                                            mosp               1.00 
      672 xadder.xdotoperator_a_3.xaoi.xm5.
                                            mosn               1.00 
      673 xadder.xdotoperator_a_3.xaoi.xm6.
                                            mosn               1.00 
      674 xadder.xdotoperator_a_3.xaoi.xm7.
                                            mosn               1.00 
      675 xadder.xdotoperator_a_3.xxnor.xm3.
                                            mosp               1.00 
      676 xadder.xdotoperator_a_3.xxnor.xm4.
                                            mosp               1.00 
      677 xadder.xdotoperator_a_3.xxnor.xm1.
                                            mosn               1.00 
      678 xadder.xdotoperator_a_3.xxnor.xm2.
                                            mosn               1.00 
      679 xadder.xdotoperator_a_4.xaoi.xm1.
                                            mosp               1.00 
      680 xadder.xdotoperator_a_4.xaoi.xm2.
                                            mosp               1.00 
      681 xadder.xdotoperator_a_4.xaoi.xm3.
                                            mosp               1.00 
      682 xadder.xdotoperator_a_4.xaoi.xm5.
                                            mosn               1.00 
      683 xadder.xdotoperator_a_4.xaoi.xm6.
                                            mosn               1.00 
      684 xadder.xdotoperator_a_4.xaoi.xm7.
                                            mosn               1.00 
      685 xadder.xdotoperator_a_4.xxnor.xm3.
                                            mosp               1.00 
      686 xadder.xdotoperator_a_4.xxnor.xm4.
                                            mosp               1.00 
      687 xadder.xdotoperator_a_4.xxnor.xm1.
                                            mosn               1.00 
      688 xadder.xdotoperator_a_4.xxnor.xm2.
                                            mosn               1.00 
      689 xadder.xdotoperator_a_5.xaoi.xm1.
                                            mosp               1.00 
      690 xadder.xdotoperator_a_5.xaoi.xm2.
                                            mosp               1.00 
      691 xadder.xdotoperator_a_5.xaoi.xm3.
                                            mosp               1.00 
      692 xadder.xdotoperator_a_5.xaoi.xm5.
                                            mosn               1.00 
      693 xadder.xdotoperator_a_5.xaoi.xm6.
                                            mosn               1.00 
      694 xadder.xdotoperator_a_5.xaoi.xm7.
                                            mosn               1.00 
      695 xadder.xdotoperator_a_5.xxnor.xm3.
                                            mosp               1.00 
      696 xadder.xdotoperator_a_5.xxnor.xm4.
                                            mosp               1.00 
      697 xadder.xdotoperator_a_5.xxnor.xm1.
                                            mosn               1.00 
      698 xadder.xdotoperator_a_5.xxnor.xm2.
                                            mosn               1.00 
      699 xadder.xdotoperator_a_6.xaoi.xm1.
                                            mosp               1.00 
      700 xadder.xdotoperator_a_6.xaoi.xm2.
                                            mosp               1.00 
      701 xadder.xdotoperator_a_6.xaoi.xm3.
                                            mosp               1.00 
      702 xadder.xdotoperator_a_6.xaoi.xm5.
                                            mosn               1.00 
      703 xadder.xdotoperator_a_6.xaoi.xm6.
                                            mosn               1.00 
      704 xadder.xdotoperator_a_6.xaoi.xm7.
                                            mosn               1.00 
      705 xadder.xdotoperator_a_6.xxnor.xm3.
                                            mosp               1.00 
      706 xadder.xdotoperator_a_6.xxnor.xm4.
                                            mosp               1.00 
      707 xadder.xdotoperator_a_6.xxnor.xm1.
                                            mosn               1.00 
      708 xadder.xdotoperator_a_6.xxnor.xm2.
                                            mosn               1.00 
      709 xadder.xdotoperator_a_7.xaoi.xm1.
                                            mosp               1.00 
      710 xadder.xdotoperator_a_7.xaoi.xm2.
                                            mosp               1.00 
      711 xadder.xdotoperator_a_7.xaoi.xm3.
                                            mosp               1.00 
      712 xadder.xdotoperator_a_7.xaoi.xm5.
                                            mosn               1.00 
      713 xadder.xdotoperator_a_7.xaoi.xm6.
                                            mosn               1.00 
      714 xadder.xdotoperator_a_7.xaoi.xm7.
                                            mosn               1.00 
      715 xadder.xdotoperator_a_7.xxnor.xm3.
                                            mosp               1.00 
      716 xadder.xdotoperator_a_7.xxnor.xm4.
                                            mosp               1.00 
      717 xadder.xdotoperator_a_7.xxnor.xm1.
                                            mosn               1.00 
      718 xadder.xdotoperator_a_7.xxnor.xm2.
                                            mosn               1.00 
      719 xadder.xdotoperator_b_0.xaoi.xm1.
                                            mosp               1.00 
      720 xadder.xdotoperator_b_0.xaoi.xm2.
                                            mosp               1.00 
      721 xadder.xdotoperator_b_0.xaoi.xm3.
                                            mosp               1.00 
      722 xadder.xdotoperator_b_0.xaoi.xm5.
                                            mosn               1.00 
      723 xadder.xdotoperator_b_0.xaoi.xm6.
                                            mosn               1.00 
      724 xadder.xdotoperator_b_0.xaoi.xm7.
                                            mosn               1.00 
      725 xadder.xdotoperator_b_1.xaoi.xm1.
                                            mosp               1.00 
      726 xadder.xdotoperator_b_1.xaoi.xm2.
                                            mosp               1.00 
      727 xadder.xdotoperator_b_1.xaoi.xm3.
                                            mosp               1.00 
      728 xadder.xdotoperator_b_1.xaoi.xm5.
                                            mosn               1.00 
      729 xadder.xdotoperator_b_1.xaoi.xm6.
                                            mosn               1.00 
      730 xadder.xdotoperator_b_1.xaoi.xm7.
                                            mosn               1.00 
      731 xadder.xdotoperator_b_1.xnand.xm1.
                                            mosn               1.00 
      732 xadder.xdotoperator_b_1.xnand.xm2.
                                            mosn               1.00 
      733 xadder.xdotoperator_b_1.xnand.xm3.
                                            mosp               1.00 
      734 xadder.xdotoperator_b_1.xnand.xm4.
                                            mosp               1.00 
      735 xadder.xdotoperator_b_2.xaoi.xm1.
                                            mosp               1.00 
      736 xadder.xdotoperator_b_2.xaoi.xm2.
                                            mosp               1.00 
      737 xadder.xdotoperator_b_2.xaoi.xm3.
                                            mosp               1.00 
      738 xadder.xdotoperator_b_2.xaoi.xm5.
                                            mosn               1.00 
      739 xadder.xdotoperator_b_2.xaoi.xm6.
                                            mosn               1.00 
      740 xadder.xdotoperator_b_2.xaoi.xm7.
                                            mosn               1.00 
      741 xadder.xdotoperator_b_2.xnand.xm1.
                                            mosn               1.00 
      742 xadder.xdotoperator_b_2.xnand.xm2.
                                            mosn               1.00 
      743 xadder.xdotoperator_b_2.xnand.xm3.
                                            mosp               1.00 
      744 xadder.xdotoperator_b_2.xnand.xm4.
                                            mosp               1.00 
      745 xadder.xdotoperator_b_3.xaoi.xm1.
                                            mosp               1.00 
      746 xadder.xdotoperator_b_3.xaoi.xm2.
                                            mosp               1.00 
      747 xadder.xdotoperator_b_3.xaoi.xm3.
                                            mosp               1.00 
      748 xadder.xdotoperator_b_3.xaoi.xm5.
                                            mosn               1.00 
      749 xadder.xdotoperator_b_3.xaoi.xm6.
                                            mosn               1.00 
      750 xadder.xdotoperator_b_3.xaoi.xm7.
                                            mosn               1.00 
      751 xadder.xdotoperator_b_3.xnand.xm1.
                                            mosn               1.00 
      752 xadder.xdotoperator_b_3.xnand.xm2.
                                            mosn               1.00 
      753 xadder.xdotoperator_b_3.xnand.xm3.
                                            mosp               1.00 
      754 xadder.xdotoperator_b_3.xnand.xm4.
                                            mosp               1.00 
      755 xadder.xdotoperator_c_0.xoa.xm1.
                                            mosp               1.00 
      756 xadder.xdotoperator_c_0.xoa.xm2.
                                            mosp               1.00 
      757 xadder.xdotoperator_c_0.xoa.xm3.
                                            mosp               1.00 
      758 xadder.xdotoperator_c_0.xoa.xm5.
                                            mosn               1.00 
      759 xadder.xdotoperator_c_0.xoa.xm6.
                                            mosn               1.00 
      760 xadder.xdotoperator_c_0.xoa.xm7.
                                            mosn               1.00 
      761 xadder.xdotoperator_c_1.xaoi.xm1.
                                            mosp               1.00 
      762 xadder.xdotoperator_c_1.xaoi.xm2.
                                            mosp               1.00 
      763 xadder.xdotoperator_c_1.xaoi.xm3.
                                            mosp               1.00 
      764 xadder.xdotoperator_c_1.xaoi.xm5.
                                            mosn               1.00 
      765 xadder.xdotoperator_c_1.xaoi.xm6.
                                            mosn               1.00 
      766 xadder.xdotoperator_c_1.xaoi.xm7.
                                            mosn               1.00 
      767 xadder.xdotoperator_c_1.xxnor.xm3.
                                            mosp               1.00 
      768 xadder.xdotoperator_c_1.xxnor.xm4.
                                            mosp               1.00 
      769 xadder.xdotoperator_c_1.xxnor.xm1.
                                            mosn               1.00 
      770 xadder.xdotoperator_c_1.xxnor.xm2.
                                            mosn               1.00 
      771 xadder.xdotoperator_d_0.xaoi.xm1.
                                            mosp               1.00 
      772 xadder.xdotoperator_d_0.xaoi.xm2.
                                            mosp               1.00 
      773 xadder.xdotoperator_d_0.xaoi.xm3.
                                            mosp               1.00 
      774 xadder.xdotoperator_d_0.xaoi.xm5.
                                            mosn               1.00 
      775 xadder.xdotoperator_d_0.xaoi.xm6.
                                            mosn               1.00 
      776 xadder.xdotoperator_d_0.xaoi.xm7.
                                            mosn               1.00 
      777 xadder.xdotoperator_l_1.xaoi.xm1.
                                            mosp               1.00 
      778 xadder.xdotoperator_l_1.xaoi.xm2.
                                            mosp               1.00 
      779 xadder.xdotoperator_l_1.xaoi.xm3.
                                            mosp               1.00 
      780 xadder.xdotoperator_l_1.xaoi.xm5.
                                            mosn               1.00 
      781 xadder.xdotoperator_l_1.xaoi.xm6.
                                            mosn               1.00 
      782 xadder.xdotoperator_l_1.xaoi.xm7.
                                            mosn               1.00 
      783 xadder.xdotoperator_m_1.xaoi.xm1.
                                            mosp               1.00 
      784 xadder.xdotoperator_m_1.xaoi.xm2.
                                            mosp               1.00 
      785 xadder.xdotoperator_m_1.xaoi.xm3.
                                            mosp               1.00 
      786 xadder.xdotoperator_m_1.xaoi.xm5.
                                            mosn               1.00 
      787 xadder.xdotoperator_m_1.xaoi.xm6.
                                            mosn               1.00 
      788 xadder.xdotoperator_m_1.xaoi.xm7.
                                            mosn               1.00 
      789 xadder.xdotoperator_m_2.xaoi.xm1.
                                            mosp               1.00 
      790 xadder.xdotoperator_m_2.xaoi.xm2.
                                            mosp               1.00 
      791 xadder.xdotoperator_m_2.xaoi.xm3.
                                            mosp               1.00 
      792 xadder.xdotoperator_m_2.xaoi.xm5.
                                            mosn               1.00 
      793 xadder.xdotoperator_m_2.xaoi.xm6.
                                            mosn               1.00 
      794 xadder.xdotoperator_m_2.xaoi.xm7.
                                            mosn               1.00 
      795 xadder.xdotoperator_m_3.xoa.xm1.
                                            mosp               1.00 
      796 xadder.xdotoperator_m_3.xoa.xm2.
                                            mosp               1.00 
      797 xadder.xdotoperator_m_3.xoa.xm3.
                                            mosp               1.00 
      798 xadder.xdotoperator_m_3.xoa.xm5.
                                            mosn               1.00 
      799 xadder.xdotoperator_m_3.xoa.xm6.
                                            mosn               1.00 
      800 xadder.xdotoperator_m_3.xoa.xm7.
                                            mosn               1.00 
      801 xadder.xdotoperator_n_1.xoa.xm1.
                                            mosp               1.00 
      802 xadder.xdotoperator_n_1.xoa.xm2.
                                            mosp               1.00 
      803 xadder.xdotoperator_n_1.xoa.xm3.
                                            mosp               1.00 
      804 xadder.xdotoperator_n_1.xoa.xm5.
                                            mosn               1.00 
      805 xadder.xdotoperator_n_1.xoa.xm6.
                                            mosn               1.00 
      806 xadder.xdotoperator_n_1.xoa.xm7.
                                            mosn               1.00 
      807 xadder.xdotoperator_n_2.xoa.xm1.
                                            mosp               1.00 
      808 xadder.xdotoperator_n_2.xoa.xm2.
                                            mosp               1.00 
      809 xadder.xdotoperator_n_2.xoa.xm3.
                                            mosp               1.00 
      810 xadder.xdotoperator_n_2.xoa.xm5.
                                            mosn               1.00 
      811 xadder.xdotoperator_n_2.xoa.xm6.
                                            mosn               1.00 
      812 xadder.xdotoperator_n_2.xoa.xm7.
                                            mosn               1.00 
      813 xadder.xdotoperator_n_3.xoa.xm1.
                                            mosp               1.00 
      814 xadder.xdotoperator_n_3.xoa.xm2.
                                            mosp               1.00 
      815 xadder.xdotoperator_n_3.xoa.xm3.
                                            mosp               1.00 
      816 xadder.xdotoperator_n_3.xoa.xm5.
                                            mosn               1.00 
      817 xadder.xdotoperator_n_3.xoa.xm6.
                                            mosn               1.00 
      818 xadder.xdotoperator_n_3.xoa.xm7.
                                            mosn               1.00 
      819 xadder.xdotoperator_n_4.xoa.xm1.
                                            mosp               1.00 
      820 xadder.xdotoperator_n_4.xoa.xm2.
                                            mosp               1.00 
      821 xadder.xdotoperator_n_4.xoa.xm3.
                                            mosp               1.00 
      822 xadder.xdotoperator_n_4.xoa.xm5.
                                            mosn               1.00 
      823 xadder.xdotoperator_n_4.xoa.xm6.
                                            mosn               1.00 
      824 xadder.xdotoperator_n_4.xoa.xm7.
                                            mosn               1.00 
      825 xadder.xdotoperator_n_5.xoa.xm1.
                                            mosp               1.00 
      826 xadder.xdotoperator_n_5.xoa.xm2.
                                            mosp               1.00 
      827 xadder.xdotoperator_n_5.xoa.xm3.
                                            mosp               1.00 
      828 xadder.xdotoperator_n_5.xoa.xm5.
                                            mosn               1.00 
      829 xadder.xdotoperator_n_5.xoa.xm6.
                                            mosn               1.00 
      830 xadder.xdotoperator_n_5.xoa.xm7.
                                            mosn               1.00 
      831 xadder.xdotoperator_n_6.xoa.xm1.
                                            mosp               1.00 
      832 xadder.xdotoperator_n_6.xoa.xm2.
                                            mosp               1.00 
      833 xadder.xdotoperator_n_6.xoa.xm3.
                                            mosp               1.00 
      834 xadder.xdotoperator_n_6.xoa.xm5.
                                            mosn               1.00 
      835 xadder.xdotoperator_n_6.xoa.xm6.
                                            mosn               1.00 
      836 xadder.xdotoperator_n_6.xoa.xm7.
                                            mosn               1.00 
      837 xadder.xdotoperator_n_7.xaoi.xm1.
                                            mosp               1.00 
      838 xadder.xdotoperator_n_7.xaoi.xm2.
                                            mosp               1.00 
      839 xadder.xdotoperator_n_7.xaoi.xm3.
                                            mosp               1.00 
      840 xadder.xdotoperator_n_7.xaoi.xm5.
                                            mosn               1.00 
      841 xadder.xdotoperator_n_7.xaoi.xm6.
                                            mosn               1.00 
      842 xadder.xdotoperator_n_7.xaoi.xm7.
                                            mosn               1.00 
      843 xadder.xxor_1.xnot1.xm1.        mosn               1.00 
      844 xadder.xxor_1.xnot1.xm2.        mosp               1.00 
      845 xadder.xxor_2.xnot1.xm1.        mosn               1.00 
      846 xadder.xxor_2.xnot1.xm2.        mosp               1.00 
      847 xadder.xxor_3.xnot1.xm1.        mosn               1.00 
      848 xadder.xxor_3.xnot1.xm2.        mosp               1.00 
      849 xadder.xxor_4.xnot1.xm1.        mosn               1.00 
      850 xadder.xxor_4.xnot1.xm2.        mosp               1.00 
      851 xadder.xxor_5.xnot1.xm1.        mosn               1.00 
      852 xadder.xxor_5.xnot1.xm2.        mosp               1.00 
      853 xadder.xxor_6.xnot1.xm1.        mosn               1.00 
      854 xadder.xxor_6.xnot1.xm2.        mosp               1.00 
      855 xadder.xxor_7.xnot1.xm1.        mosn               1.00 
      856 xadder.xxor_7.xnot1.xm2.        mosp               1.00 
      857 xadder.xxor_8.xnot1.xm1.        mosn               1.00 
      858 xadder.xxor_8.xnot1.xm2.        mosp               1.00 
      859 xadder.xxor_9.xnot1.xm1.        mosn               1.00 
      860 xadder.xxor_9.xnot1.xm2.        mosp               1.00 
      861 xadder.xxor_10.xnot1.xm1.       mosn               1.00 
      862 xadder.xxor_10.xnot1.xm2.       mosp               1.00 
      863 xadder.xxor_11.xnot1.xm1.       mosn               1.00 
      864 xadder.xxor_11.xnot1.xm2.       mosp               1.00 
      865 xadder.xxor_12.xnot1.xm1.       mosn               1.00 
      866 xadder.xxor_12.xnot1.xm2.       mosp               1.00 
      867 xadder.xxor_13.xnot1.xm1.       mosn               1.00 
      868 xadder.xxor_13.xnot1.xm2.       mosp               1.00 
      869 xadder.xxor_14.xnot1.xm1.       mosn               1.00 
      870 xadder.xxor_14.xnot1.xm2.       mosp               1.00 
      871 xadder.xxor_15.xnot1.xm1.       mosn               1.00 
      872 xadder.xxor_15.xnot1.xm2.       mosp               1.00 
      873 xadder.xxor_15.xnot2.xm1.       mosn               1.00 
      874 xadder.xxor_15.xnot2.xm2.       mosp               1.00 
      875 xadder.xgenprop0.xxnor.xnot1.xm1.
                                            mosn               1.00 
      876 xadder.xgenprop0.xxnor.xnot1.xm2.
                                            mosp               1.00 
      877 xadder.xgenprop1.xxnor.xnot1.xm1.
                                            mosn               1.00 
      878 xadder.xgenprop1.xxnor.xnot1.xm2.
                                            mosp               1.00 
      879 xadder.xgenprop2.xxnor.xnot1.xm1.
                                            mosn               1.00 
      880 xadder.xgenprop2.xxnor.xnot1.xm2.
                                            mosp               1.00 
      881 xadder.xgenprop3.xxnor.xnot1.xm1.
                                            mosn               1.00 
      882 xadder.xgenprop3.xxnor.xnot1.xm2.
                                            mosp               1.00 
      883 xadder.xgenprop4.xxnor.xnot1.xm1.
                                            mosn               1.00 
      884 xadder.xgenprop4.xxnor.xnot1.xm2.
                                            mosp               1.00 
      885 xadder.xgenprop5.xxnor.xnot1.xm1.
                                            mosn               1.00 
      886 xadder.xgenprop5.xxnor.xnot1.xm2.
                                            mosp               1.00 
      887 xadder.xgenprop6.xxnor.xnot1.xm1.
                                            mosn               1.00 
      888 xadder.xgenprop6.xxnor.xnot1.xm2.
                                            mosp               1.00 
      889 xadder.xgenprop7.xxnor.xnot1.xm1.
                                            mosn               1.00 
      890 xadder.xgenprop7.xxnor.xnot1.xm2.
                                            mosp               1.00 
      891 xadder.xgenprop8.xxnor.xnot1.xm1.
                                            mosn               1.00 
      892 xadder.xgenprop8.xxnor.xnot1.xm2.
                                            mosp               1.00 
      893 xadder.xgenprop9.xxnor.xnot1.xm1.
                                            mosn               1.00 
      894 xadder.xgenprop9.xxnor.xnot1.xm2.
                                            mosp               1.00 
      895 xadder.xgenprop10.xxnor.xnot1.xm1.
                                            mosn               1.00 
      896 xadder.xgenprop10.xxnor.xnot1.xm2.
                                            mosp               1.00 
      897 xadder.xgenprop11.xxnor.xnot1.xm1.
                                            mosn               1.00 
      898 xadder.xgenprop11.xxnor.xnot1.xm2.
                                            mosp               1.00 
      899 xadder.xgenprop12.xxnor.xnot1.xm1.
                                            mosn               1.00 
      900 xadder.xgenprop12.xxnor.xnot1.xm2.
                                            mosp               1.00 
      901 xadder.xgenprop13.xxnor.xnot1.xm1.
                                            mosn               1.00 
      902 xadder.xgenprop13.xxnor.xnot1.xm2.
                                            mosp               1.00 
      903 xadder.xgenprop14.xxnor.xnot1.xm1.
                                            mosn               1.00 
      904 xadder.xgenprop14.xxnor.xnot1.xm2.
                                            mosp               1.00 
      905 xadder.xgenprop15.xxnor.xnot1.xm1.
                                            mosn               1.00 
      906 xadder.xgenprop15.xxnor.xnot1.xm2.
                                            mosp               1.00 
 **warning**(nmos:m1)Warning:  Acde = 0.280299 may be too small in BSIM4 model with w=1.2e-07 l=4.5e-08.
  
      
 **info** set option symb=1 internally to help for convergence.
 *****************************************************************
 ******  option summary
 ******
 absh    = 0         absin   = 0         absmos  = 1.00000u  abstol  = 1.00000n  
 absvar  = 500.000m  absvdc  = 50.0000u  accurate= 0         acout   = 0         
 altcc   = 0         altchk  = 0         appendall= 0         artist  = 0         
 aspec   = 0         auto_inc_off= 0         autost  = 0         ba_activehier= 0         
 ba_coupling= 0         ba_error= 0         ba_geoshrink= 1.00000   ba_mergeport= 0         
 ba_netfmt= 0         ba_print= ideal     ba_scale= 1.00000   badchr  = 0         
 bdfatolset= 1.00000m  bdfrtol = 1.00000m  biasinte= 0         biasnode= 0         
 biaspara= 0         biawarn = 0         binprnt = 0         bkpsiz  = 50000     
 block_name= 1         bsim4pds= 0         bypass  = 2.00000   bytol   = 100.000u  
 captab  = 0         cflflag = 0         chgtol  = 1.00000f  cmi00opt= -1.23457e-29 
 cmi01opt= -1.23457e-29 cmi02opt= -1.23457e-29 cmi03opt= -1.23457e-29 cmi04opt= -1.23457e-29 
 cmi05opt= -1.23457e-29 cmi06opt= -1.23457e-29 cmi07opt= -1.23457e-29 cmi08opt= -1.23457e-29 
 cmi09opt= -1.23457e-29 cmifla  = 0         cmimcflag= 0         cmivth  = 0         
 co      = 78        cptime  = 10.0000x  cscal   = 1.00000t  csdf    = 0         
 cshdc   = 1.00000p  cshunt  = 0         custcmi = 0         cvtol   = 200.000m  
 dcap    = 2         dccap   = 0         dcfor   = 0         dchold  = 1         
 dcic    = 1         dcon    = 0         dcstep  = 0         dctran  = 0         
 defad   = 0         defas   = 0         defl    = 100.000u  defnrd  = 0         
 defnrs  = 0         defpd   = 0         defps   = 0         defsa   = 0         
 defsb   = 0         defsd   = 0         defw    = 100.000u  degf    = 100.000m  
 degfn   = 100.000m  degfp   = 100.000m  delmax  = 0         di      = 100.000   
 diagno  = 0         dlencsdf= 5         dv      = 1.00000k  dvdt    = 3         
 dvtr    = 1.00000k  dynacc  = 0         em_recovery= 1.00000   epsmin  = 1e-28     
 expli   = 0         expmax  = 80.0000   fast    = 1         fft_accu= 0         
 fftout  = 0         fmax    = 1.00000t  fs      = 250.000m  fscal   = 1.00000n  
 ft      = 250.000m  gdcpath = 1.00000p  gen_cur_pol= 0         genk    = 1         
 geocheck= 0         geoshrink= 1.00000   gmax    = 100.000   gmb_clamp= 1         
 gmin    = 1.00000p  gmindc  = 1.00000p  gramp   = 0         gscal   = 1.00000k  
 gshdc   = 0         gshunt  = 0         h9007   = 0         hier_delim= 0         
 hier_sca= 0         ic_accurate= 0         icsweep = 1         ingold  = 0         
 interp  = 0         iprop   = 0         itl1    = 200       itl2    = 50        
 itl3    = 3         itl4    = 8         itl5    = 0         itlptran= 30        
 itlpz   = 100       itrprt  = 0         ivdmargin= 0         ivth    = 0         
 ivthn   = 0         ivthp   = 0         kcltes  = 0         klim    = 10.0000m  
 la_freq = 1.00000g  la_maxr = 1.00000y  la_minc = 100.000a  la_time = 1.00000n  
 la_tol  = 50.0000m  lennam  = 8         limtim  = 2         lis_new = 0         
 lislvl  = 0         list    = 0         lscal   = 1.00000x  lvltim  = 4         
 macmod  = 0         maxamp  = 0         maxord  = 2         maxwarns= 5         
 mbypas  = 2.00000   mcbrief = 0         measdg  = 4         measfail= 1         
 measfile= 0         measform= 0         measou  = 1         method  = 1         
 minval  = 1.00000p  mixed_num_format= 0         modmon  = 0         modparchk= 1         
 modprt  = 0         modsrh  = 1         module_def_rule= 0         montecon= 1         
 mraapi  = 0         mraext  = 0         mrapaged= 0         mt_check= 0         
 mtthresh= 0         mu      = 500.000m  ncfilter= -1.00000p ncwarn  = 0         
 newtol  = 0         node    = 0         noelck  = 0         noisem  = 10.0000u  
 noisum  = 0         nomod   = 1         nopiv   = 0         notop   = 0         
 nowarn  = 0         numdgt  = 4         nxx     = 0         off     = 0         
 opfile  = 0         optcon  = 0         optlst  = 0         optparhier= global    
 opts    = 1         parhier = local     parse_module_netlist= 0         pathnu  = 0         
 pcb_scale_format= 0         phd     = 0         pivot   = 0         pivtol  = 1.00000f  
 plim    = 0         post    = binary    post_ver= 9601      postlvl = 0         
 posttop = 0         probe   = 0         psf     = 0         puretp  = 0         
 putmeas = 1         pzabs   = 10.0000m  pztol   = 1.00000u  radegoutput= 0         
 randgen = 0         redefmodel= 0         redefsub= 0         relh    = 50.0000m  
 reli    = 10.0000m  relin   = 1.00000m  relmos  = 50.0000m  relq    = 10.0000m  
 reltol  = 1.00000m  relvar  = 300.000m  relvdc  = 1.00000m  replicates= 1         
 resmin  = 10.0000u  risetime= 100.000p  ritol   = 1.00000u  rmax    = 5.00000   
 rmin    = 1.00000n  runlvl  = 3         sampling_method= 1         scale   = 1.00000   
 scalm   = 1.00000   sda     = 0         seed    = 1         set_missing_values= 1         
 shrink  = 1.00000   si_scale_symbols= 0         sim_la  = 0         slopetol= 500.000m  
 soiq0   = 0         spice   = 0         split_dp= 0         spmodel = 0         
 sstamp  = 0         statfl  = 0         strict_check= 0         sx_factor= 1.00000   
 symb    = 1         timeres = 1.00000p  tmiage  = 0         tmiba   = 0         
 tmiflag = 0         tmisave = 0         tmplt_pol= 0         tnom    = 25.0000   
 trcon   = 1         trtol   = 7.00000   unwrap  = 0         use_temp= 0         
 vamodel = 0         vecbus  = 0         ver_control= 0         vfloor  = 500.000n  
 vntol   = 50.0000u  wacc    = -1.00000  warn    = 1         warn_sep= 0         
 warnli  = 1         wave_pop= 100.000m  wdelayopt= 0         wdf     = 0         
 wdf_op  = 1         wincludegdimag= no        wl      = 0         wnflag  = 1         
 x0i     = 0         x0r     = -123.456k x1i     = 0         x1r     = -1.23456x 
 x2i     = 0         x2r     = 1.23456x  xdtemp  = 0         xmult_in_expr= 0         
 zuken   = 0         
 biasfile =                 
 cmipath = 
 tmipath = 
 tmiinput = 
 etmiusrinput = 
 mra00path = 
 mra01path = 
 mra02path = 
 mra03path = 
 radegfile = 
 tmisort = 
 d_ibis = 
 search = 
  
 search = /users/start2012/r0305883/Master2/DDIS/DDIS1/spicefiles
  
 search = /esat/micas-data/software/hspice_2012.06/hspice/parts/ad
  
 search = /esat/micas-data/software/hspice_2012.06/hspice/parts/ad
  
 search = /esat/micas-data/software/hspice_2012.06/hspice/parts/behave
  
 search = /esat/micas-data/software/hspice_2012.06/hspice/parts/bjt
  
 search = /esat/micas-data/software/hspice_2012.06/hspice/parts/burr_brn
  
 search = /esat/micas-data/software/hspice_2012.06/hspice/parts/comlinear
  
 search = /esat/micas-data/software/hspice_2012.06/hspice/parts/dio
  
 search = /esat/micas-data/software/hspice_2012.06/hspice/parts/fet
  
 search = /esat/micas-data/software/hspice_2012.06/hspice/parts/lin_tech
  
 search = /esat/micas-data/software/hspice_2012.06/hspice/parts/pci
  
 search = /esat/micas-data/software/hspice_2012.06/hspice/parts/signet
  
 search = /esat/micas-data/software/hspice_2012.06/hspice/parts/ti
  
 search = /esat/micas-data/software/hspice_2012.06/hspice/parts/tline
  
 search = /esat/micas-data/software/hspice_2012.06/hspice/parts/xilinx
  
 search = /esat/micas-data/software/hspice_2012.06/hspice/parts
  
  Opening plot unit= 15
 file=/users/start2012/r0305883/Master2/DDIS/DDIS1/spicefiles/Adder16b_BrentKungStandard.pa0

 **info** dc convergence successful
 you can increase the efficiency of the
 operating point calculation by setting dcon= 1
 in the .option statement
1****** HSPICE -- G-2012.06-SP2 32-BIT (Nov 27 2012) RHEL32 ******              
 ******  
 ******************************

  ******  operating point information tnom=  25.000 temp=  25.000 *****
 ***** operating point status is voltage   simulation time is     0.     
      node    =voltage        node    =voltage        node    =voltage

 +  0:a0      =   0.        0:a1      =   0.        0:a10     =   0.     
 +  0:a11     =   0.        0:a12     =   0.        0:a13     =   0.     
 +  0:a14     =   0.        0:a15     =   0.        0:a2      =   0.     
 +  0:a3      =   0.        0:a4      =   0.        0:a5      =   0.     
 +  0:a6      =   0.        0:a7      =   0.        0:a8      =   0.     
 +  0:a9      =   0.        0:a_buff0 =  75.8929n   0:a_buff1 =  75.8928n
 +  0:a_buff10=  75.8928n   0:a_buff11=  75.8928n   0:a_buff12=  75.8928n
 +  0:a_buff13=  75.8928n   0:a_buff14=  75.8928n   0:a_buff15=  75.8925n
 +  0:a_buff2 =  75.8928n   0:a_buff3 =  75.8928n   0:a_buff4 =  75.8928n
 +  0:a_buff5 =  75.8928n   0:a_buff6 =  75.8928n   0:a_buff7 =  75.8928n
 +  0:a_buff8 =  75.8928n   0:a_buff9 =  75.8928n   0:an0     = 999.9999m
 +  0:an1     = 999.9999m   0:an10    = 999.9999m   0:an11    = 999.9999m
 +  0:an12    = 999.9999m   0:an13    = 999.9999m   0:an14    = 999.9999m
 +  0:an15    = 999.9999m   0:an2     = 999.9999m   0:an3     = 999.9999m
 +  0:an4     = 999.9999m   0:an5     = 999.9999m   0:an6     = 999.9999m
 +  0:an7     = 999.9999m   0:an8     = 999.9999m   0:an9     = 999.9999m
 +  0:b0      =   0.        0:b1      =   0.        0:b10     =   0.     
 +  0:b11     =   0.        0:b12     =   0.        0:b13     =   0.     
 +  0:b14     =   0.        0:b15     =   0.        0:b2      =   0.     
 +  0:b3      =   0.        0:b4      =   0.        0:b5      =   0.     
 +  0:b6      =   0.        0:b7      =   0.        0:b8      =   0.     
 +  0:b9      =   0.        0:b_buff0 =  63.1895n   0:b_buff1 =  63.1895n
 +  0:b_buff10=  63.1895n   0:b_buff11=  63.1895n   0:b_buff12=  63.1895n
 +  0:b_buff13=  63.1895n   0:b_buff14=  63.1895n   0:b_buff15=  63.1894n
 +  0:b_buff2 =  63.1895n   0:b_buff3 =  63.1895n   0:b_buff4 =  63.1895n
 +  0:b_buff5 =  63.1895n   0:b_buff6 =  63.1895n   0:b_buff7 =  63.1895n
 +  0:b_buff8 =  63.1895n   0:b_buff9 =  63.1895n   0:bn0     = 999.9999m
 +  0:bn1     = 999.9999m   0:bn10    = 999.9999m   0:bn11    = 999.9999m
 +  0:bn12    = 999.9999m   0:bn13    = 999.9999m   0:bn14    = 999.9999m
 +  0:bn15    = 999.9999m   0:bn2     = 999.9999m   0:bn3     = 999.9999m
 +  0:bn4     = 999.9999m   0:bn5     = 999.9999m   0:bn6     = 999.9999m
 +  0:bn7     = 999.9999m   0:bn8     = 999.9999m   0:bn9     = 999.9999m
 +  0:s0      =  26.5806n   0:s1      = 757.4729n   0:s10     = 748.7228n
 +  0:s11     =   1.0303u   0:s12     = 766.2233n   0:s13     =   1.0303u
 +  0:s14     = 748.7226n   0:s15     = 427.4954n   0:s16     = 331.2511n
 +  0:s2      = 748.7227n   0:s3      =   1.0303u   0:s4      = 774.9735n
 +  0:s5      =   1.0303u   0:s6      = 748.7228n   0:s7      =   1.0303u
 +  0:s8      = 748.7227n   0:s9      =   1.0303u   0:sn1     =   1.0000 
 +  0:sn10    =   1.0000    0:sn11    =   1.0000    0:sn12    =   1.0000 
 +  0:sn13    =   1.0000    0:sn14    =   1.0000    0:sn15    =   1.0000 
 +  0:sn16    =   1.0000    0:sn2     =   1.0000    0:sn3     =   1.0000 
 +  0:sn4     =   1.0000    0:sn5     =   1.0000    0:sn6     =   1.0000 
 +  0:sn7     =   1.0000    0:sn8     =   1.0000    0:sn9     =   1.0000 
 +  0:vdd     =   1.0000    0:vdd2    =   1.0000    0:vss     =   0.     
 + 65:gen0    = 999.9999m  65:gen0_inv= 403.3177n  65:gen1    = 999.9997m
 + 65:gen10   = 999.9999m  65:gen10_0 = 676.1247n  65:gen11   =   1.0000 
 + 65:gen11_0 = 999.9999m  65:gen11_0_= 999.9999m  65:gen11_0_= 412.0680n
 + 65:gen11_10= 124.1455n  65:gen11_8 = 999.9997m  65:gen11_8_= 102.1517n
 + 65:gen12   = 999.9999m  65:gen12_0 = 676.1247n  65:gen13   =   1.0000 
 + 65:gen13_0 =  60.1053n  65:gen13_0_= 999.9999m  65:gen13_12= 137.2709n
 + 65:gen13_12= 999.9994m  65:gen14   = 999.9999m  65:gen14_0 = 999.9999m
 + 65:gen14_in= 102.1517n  65:gen15   =   1.0000   65:gen15_0 = 999.9998m
 + 65:gen15_12= 999.9998m  65:gen15_14= 124.1452n  65:gen15_8 = 124.1456n
 + 65:gen1_0  =  60.1052n  65:gen1_0_i= 999.9998m  65:gen2    = 999.9999m
 + 65:gen2_0  = 676.1247n  65:gen3    =   1.0000   65:gen3_0  = 999.9999m
 + 65:gen3_0_b= 999.9999m  65:gen3_0_i= 420.8183n  65:gen3_2  = 224.3765n
 + 65:gen4    = 999.9999m  65:gen4_0  = 676.1247n  65:gen5    =   1.0000 
 + 65:gen5_0  = 999.9997m  65:gen5_4  = 137.2709n  65:gen6    = 999.9999m
 + 65:gen6_0  = 676.1247n  65:gen7    =   1.0000   65:gen7_0  =  60.1053n
 + 65:gen7_0_b=  44.0813n  65:gen7_0_i= 999.9998m  65:gen7_4  = 999.9991m
 + 65:gen7_6  = 124.1455n  65:gen8    = 999.9999m  65:gen8_0  = 676.1247n
 + 65:gen9    =   1.0000   65:gen9_0  = 999.9997m  65:gen9_8  = 137.2709n
 + 65:prop0   = 999.9996m  65:prop1   = 999.9994m  65:prop10  = 999.9993m
 + 65:prop11  = 999.9993m  65:prop11_1=  30.3236n  65:prop11_8=   1.0000 
 + 65:prop11_8=  35.3309n  65:prop12  = 999.9993m  65:prop13  = 999.9993m
 + 65:prop13_1=  30.3236n  65:prop13_1= 999.9999m  65:prop14  = 999.9993m
 + 65:prop14_i=  35.3310n  65:prop15  = 999.9981m  65:prop15_1=   1.0000 
 + 65:prop15_1=  30.3236n  65:prop15_8=  21.1755n  65:prop2   = 999.9993m
 + 65:prop3   = 999.9993m  65:prop3_2 =  21.1755n  65:prop4   = 999.9993m
 + 65:prop5   = 999.9993m  65:prop5_4 =  30.3236n  65:prop6   = 999.9993m
 + 65:prop7   = 999.9993m  65:prop7_4 =   1.0000   65:prop7_6 =  30.3236n
 + 65:prop8   = 999.9993m  65:prop9   = 999.9993m  65:prop9_8 =  30.3236n
 +267:inputb_i= 999.9999m 268:inputb_i= 394.5674n 269:inputb_i= 999.9999m
 +270:inputb_i= 999.9999m 271:inputb_i= 999.9999m 272:inputb_i= 394.5675n
 +273:inputb_i= 999.9999m 274:inputb_i= 394.5675n 275:inputb_i= 999.9999m
 +276:inputb_i= 394.5675n 277:inputb_i= 999.9999m 278:inputb_i= 999.9999m
 +279:inputb_i= 999.9999m 281:inputb_i= 394.5674n 282:inputna =  26.5810n
 +282:inputnb =  26.5807n 282:nn1     =  51.5026n 282:nn2     = 212.0879n
 +282:np1     = 199.8461m 316:int     =  44.7314m 317:inputb_i= 999.9998m
 +318:int     =  44.7314m 319:inputb_i= 999.9997m 320:int     =  44.7314m
 +321:inputb_i= 999.9996m 322:int     =  44.7314m 323:inputb_i= 999.9996m
 +324:int     =  44.7314m 325:inputb_i= 999.9996m 326:int     =  44.7314m
 +327:inputb_i= 999.9996m 328:int     =  44.7314m 329:inputb_i= 999.9996m
 +330:int     =  44.7314m 331:inputb_i= 999.9996m 332:int     =  44.7314m
 +333:inputb_i= 999.9996m 334:int     =  44.7314m 335:inputb_i= 999.9996m
 +336:int     =  44.7314m 337:inputb_i= 999.9996m 338:int     =  44.7314m
 +339:inputb_i= 999.9996m 340:int     =  44.7314m 341:inputb_i= 999.9996m
 +342:int     =  44.7314m 343:inputb_i= 999.9996m 344:int     =  44.7314m
 +345:inputb_i= 999.9996m 346:int     =  44.7314m 347:inputb_i= 999.9990m
 +350:nn1     =  25.7811n 350:np1     = 971.9882m 353:nn1     = 163.4164n
 +353:np1     = 951.3086m 354:np1     = 951.3082m 355:nn1     = 105.3460n
 +355:np1     = 951.3086m 356:np1     = 951.3082m 357:nn1     =  96.5957n
 +357:np1     = 951.3086m 358:np1     = 951.3082m 359:nn1     = 105.3460n
 +359:np1     = 951.3086m 360:np1     = 951.3082m 361:nn1     =  96.5957n
 +361:np1     = 951.3086m 362:np1     = 951.3082m 363:nn1     = 105.3460n
 +363:np1     = 951.3086m 364:np1     = 951.3082m 365:nn1     =  96.5955n
 +365:np1     = 951.3090m 366:np1     = 951.3076m 367:nn1     =  47.3776m
 +367:np1     =   1.0000  372:nn1     =  44.7314m 372:np1     = 999.9994m
 +373:int     =  47.3775m 374:nn1     =  44.7314m 374:np1     = 999.9998m
 +375:int     =  47.3775m 376:nn1     =  44.7314m 376:np1     = 999.9998m
 +377:int     =  47.3775m 378:nn1     =  25.7811n 378:np1     = 971.9883m
 +379:nn1     =  96.5958n 379:np1     = 951.3082m 380:np1     = 951.3084m
 +381:nn1     =  44.7314m 381:np1     = 999.9998m 390:nn1     =  47.3775m
 +390:np1     =   1.0000  395:nn1     =  44.7316m 395:np1     = 999.9998m
 +396:nn1     =  44.7314m 396:np1     = 999.9998m 401:nn1     =  25.7811n
 +401:np1     = 971.9884m 402:nn1     = 464.5817n 402:np1     = 951.3086m
 +403:nn1     = 464.5818n 403:np1     = 951.3086m 404:nn1     = 464.5817n
 +404:np1     = 951.3085m 405:nn1     = 464.5817n 405:np1     = 951.3085m
 +406:nn1     = 464.5817n 406:np1     = 951.3085m 407:nn1     = 464.5818n
 +407:np1     = 951.3086m 412:nn1     =  47.3775m 412:np1     =   1.0000 


          ***** job concluded
1****** HSPICE -- G-2012.06-SP2 32-BIT (Nov 27 2012) RHEL32 ******              
 ******  
 ******************************

  ******  job statistics summary tnom=  25.000 temp=  25.000 *****
  
  
 ******  Machine Information  ******
 CPU:
 model name	: Intel(R) Core(TM) i5-3450 CPU @ 3.10GHz
 cpu MHz	: 3499.972
  
 OS:
 Linux version 3.10.0-229.20.1.el7.x86_64 (builder@kbuilder.dev.centos.org) (gcc version 4.8.3 20140911 (Red Hat 4.8.3-9) (GCC) ) #1 SMP Tue Nov 3 19:10:07 UTC 2015


  ******  HSPICE Threads Information  ******

  Command Line Threads Count :     1
  Available CPU Count        :     4
  Actual Threads Count       :     1


  ******  Circuit Statistics  ******
  # nodes       =    2931 # elements   =     653
  # resistors   =       0 # capacitors =       0 # inductors   =       0
  # mutual_inds =       0 # vccs       =       0 # vcvs        =       0
  # cccs        =       0 # ccvs       =       0 # volt_srcs   =       3
  # curr_srcs   =       0 # diodes     =       0 # bjts        =       0
  # jfets       =       0 # mosfets    =     650 # U elements  =       0
  # T elements  =       0 # W elements =       0 # B elements  =       0
  # S elements  =       0 # P elements =       0 # va device   =       0
  # vector_srcs =      49 # N elements =       0


  ******  Runtime Statistics (seconds)  ******

  analysis           time    # points   tot. iter  conv.iter
  op point           0.21           1          88
  transient          0.71        3201         593         201 rev=         5
  readin             0.02
  errchk             0.04
  setup              0.18
  output             0.00


           peak memory used        114.74 megabytes
           total cpu time            1.16 seconds
           total elapsed time        2.11 seconds
           job started at     10:38:09 11/26/2015
           job ended   at     10:38:11 11/26/2015


 lic: Release hspice token(s) 
 lic: total license checkout elapse time:        0.21(s)
